tests/data/short_circuit/floating_zero_sequence_two_phase_short_circuit/sc_output.json
{
  "version": "1.0",
  "type": "sc_output",
  "is_batch": false,
  "attributes": {},
  "data": {
    "node": [
      {"id": 1, "energized": 1, "u_pu": [1.1000000000000003, 0.7129392070332301, 0.71293920703322933], "u": [6350.852961085885, 4116.1564309647374, 4116.1564309647329], "u_angle": [4.1087383811929142e-16, -2.4519198969893874, 2.4519198969893869]},
      {"id": 2, "energized": 1, "u_pu": [0.96158645629698158, 0.96158646924810309, 0.2619047645381179], "u": [5551.7219939216066, 5551.7220686949413, 1512.1078630812792], "u_angle": [3.0049844817424054, 0.13660816999595138, -1.5707963018375182]},
      {"id": 3, "energized": 1, "u_pu": [1.1000000000000005, 0.55000000000000027, 0.55000000000000027], "u": [6350.8529610858868, 3175.4264805429434, 3175.4264805429434], "u_angle": [7.5850827162200983e-16, -3.1415926535897922, -3.1415926535897922]}
    ],
    "transformer": [
      {"id": 4, "energized": 1, "i_from": [5.5856789604205672e-12, 2619.0476190476165, 2619.0476190476197], "i_from_angle": [2.0629388915188085, -3.1415926535897918, 3.1326810309084963e-16], "i_to": [1512.1078478775933, 1512.1078478775901, 3024.2156957551833], "i_to_angle": [-3.1415926535897922, -3.1415926535897922, 1.1742329671325752e-15]},
      {"id": 5, "energized": 1, "i_from": [1512.107847877593, 1512.107847877591, 3024.2156957551838], "i_from_angle": [0, 1.0851925418881533e-15, -3.1415926535897927], "i_to": [4.0510114653722552e-14, 2619.0476190476206, 2619.0476190476206], "i_to_angle": [3.1415926535897931, 6.2653620618169906e-16, -3.1415926535897927]}
    ],
    "asym_load": [
      {"id": 6, "energized": 0, "i": [0, 0, 0], "i_angle": [0, 0, 0]}
    ],
    "source": [
      {"id": 7, "energized": 1, "i": [2.8844217649615059e-12, 2619.0476190476174, 2619.0476190476193], "i_angle": [2.5364331268548304, -3.1415926535897922, 3.1326810309084968e-16]}
    ],
    "fault": [
      {"id": 8, "energized": 1, "i_f": [0, 2619.0476190476206, 2619.0476190476206], "i_f_angle": [0, -3.1415926535897927, 3.4625829055473166e-16]}
    ]
  }
}
